/*--------------------------------*- C++ -*----------------------------------*\
| =========                 |                                                 |
| \\      /  F ield         | OpenFOAM: The Open Source CFD Toolbox           |
|  \\    /   O peration     | Version:  3.0.1                                 |
|   \\  /    A nd           | Web:      www.OpenFOAM.org                      |
|    \\/     M anipulation  |                                                 |
\*---------------------------------------------------------------------------*/
FoamFile
{
    version     2.0;
    format      ascii;
    class       dictionary;
    location    "constant";
    object      thermo.compressibleGas;
}
// * * * * * * * * * * * * * * * * * * * * * * * * * * * * * * * * * * * * * //

O2
{
    specie
    {
        nMoles          1;
        molWeight       31.9988;
    }
    thermodynamics
    {
        Tlow            70;
        Thigh           5000;
        Tcommon         1000;
        highCpCoeffs    ( 3.69758 0.00061352 -1.25884e-07 1.77528e-11 -1.13644e-15 -1233.93 3.18917 );
        lowCpCoeffs     ( 3.21294 0.00112749 -5.75615e-07 1.31388e-09 -8.76855e-13 -1005.25 6.03474 );
    }
 transport
    {
        muCoeffs              ( (6.32402      50.41190  -51.68010)
                                (0.12102e-02 -0.11536e-02 -0.62571e-02)
                                (5.28346      254.209   -168.48100)
                                (6.62263      38.09570  -8.46414)
                                (19.74540     7.63034   -14.35440)
                                (-1.89992     -12.53670 4.98529)
                                (24.27450     3.44945   -11.29130)
                                (0.79716      1.11764   0.12348e-01)
                                (-0.23816     0.67695e-01 -0.81630)
                                (0.68629e-01     0.34793 0.59256) );

         kappaCoeffs           ( (2.41657     0.74824   -0.91858)
                                (-0.50924    -1.50936   -49.99120)
                                (6.61069     5.62073    64.75990)
                                (14.54250    -8.91387   -5.63794)
                                (0.79274     0.82019    -0.69390)
                                (-5.86340   12.80050   9.58926)
                                (81.17100    114.15800  -60.84100)
                                (0.0         0.0        0.0)
                                (0.0         0.0        0.0)
                                (0.0         0.0        0.0) );

    }
    equationOfState
    {
       Tc  154.6;
       Vc  0.0734;
       Pc  50.4e5;
       omega  0.025;
       dipole 0.0;
    }
   elements
   {
        O               2;
   }
}
/*O2bis
{
    specie
    {
        nMoles          1;
        molWeight       31.9988;
    }
    thermodynamics
    {
        Tlow            70;
        Thigh           5000;
        Tcommon         1000;
        highCpCoeffs    ( 3.69758 0.00061352 -1.25884e-07 1.77528e-11 -1.13644e-15 -1233.93 3.18917 );
        lowCpCoeffs     ( 3.21294 0.00112749 -5.75615e-07 1.31388e-09 -8.76855e-13 -1005.25 6.03474 );
    }
 transport
    {
        muCoeffs              ( (6.32402      50.41190  -51.68010)
                                (0.12102e-02 -0.11536e-02 -0.62571e-02)
                                (5.28346      254.209   -168.48100)
                                (6.62263      38.09570  -8.46414)
                                (19.74540     7.63034   -14.35440)
                                (-1.89992     -12.53670 4.98529)
                                (24.27450     3.44945   -11.29130)
                                (0.79716      1.11764   0.12348e-01)
                                (-0.23816     0.67695e-01 -0.81630)
                                (0.68629e-01     0.34793 0.59256) );

         kappaCoeffs           ( (2.41657     0.74824   -0.91858)
                                (-0.50924    -1.50936   -49.99120)
                                (6.61069     5.62073    64.75990)
                                (14.54250    -8.91387   -5.63794)
                                (0.79274     0.82019    -0.69390)
                                (-5.86340   12.80050   9.58926)
                                (81.17100    114.15800  -60.84100)
                                (0.0         0.0        0.0)
                                (0.0         0.0        0.0)
                                (0.0         0.0        0.0) );

    }
    equationOfState
    {
       Tc  154.6;
       Vc  0.0734;
       Pc  50.4e5;
       omega  0.025;
       dipole 0.0;
    }
   elements
   {
        O               2;
   }
}
H2O
{
    specie
    {
        nMoles          1;
        molWeight       18.0153;
    }
    thermodynamics
    {
        Tlow            100;
        Thigh           5000;
        Tcommon         1000;
        highCpCoeffs    ( 2.67215 0.00305629 -8.73026e-07 1.201e-10 -6.39162e-15 -29899.2 6.86282 );
        lowCpCoeffs     ( 3.38684 0.00347498 -6.3547e-06 6.96858e-09 -2.50659e-12 -30208.1 2.59023 );
    }
 transport
    {
         muCoeffs              ( (6.32402      50.41190  -51.68010)
                                (0.12102e-02 -0.11536e-02 -0.62571e-02)
                                (5.28346      254.209   -168.48100)
                                (6.62263      38.09570  -8.46414)
                                (19.74540     7.63034   -14.35440)
                                (-1.89992     -12.53670 4.98529)
                                (24.27450     3.44945   -11.29130)
                                (0.79716      1.11764   0.12348e-01)
                                (-0.23816     0.67695e-01 -0.81630)
                                (0.68629e-01     0.34793 0.59256) );

         kappaCoeffs           ( (2.41657     0.74824   -0.91858)
                                (-0.50924    -1.50936   -49.99120)
                                (6.61069     5.62073    64.75990)
                                (14.54250    -8.91387   -5.63794)
                                (0.79274     0.82019    -0.69390)
                                (-5.86340   12.80050   9.58926)
                                (81.17100    114.15800  -60.84100)
                                (0.0         0.0        0.0)
                                (0.0         0.0        0.0)
                                (0.0         0.0        0.0) );

    }
    equationOfState
    {
       Tc  647.3;
       Vc  0.0571;
       Pc  221.2e5;
       omega  0.344;
       dipole 0.0;
    }
   elements
   {
        H               2;
        O               1;
   }
}

C12H26
{
    specie
    {
        nMoles          1;
        molWeight       170.34;
    }
    thermodynamics // da Converge
    {
        Tlow            100;
        Thigh           6000;
        Tcommon         1000;
        highCpCoeffs    ( 3.70187925e+01 5.54721488e-02 -1.92079548e-05 3.08175574e-09 -1.84800617e-13 -5.26984458e+04 -1.61453501e+02 );
        lowCpCoeffs     ( 2.13264480e+01 -3.86394002e-02 3.99476113e-04 -5.06681097e-07 2.00697878e-10 -4.22475053e+04 -4.85848300e+01 );
    }
 transport
    {
         muCoeffs              ( (6.32402      50.41190  -51.68010)
                                (0.12102e-02 -0.11536e-02 -0.62571e-02)
                                (5.28346      254.209   -168.48100)
                                (6.62263      38.09570  -8.46414)
                                (19.74540     7.63034   -14.35440)
                                (-1.89992     -12.53670 4.98529)
                                (24.27450     3.44945   -11.29130)
                                (0.79716      1.11764   0.12348e-01)
                                (-0.23816     0.67695e-01 -0.81630)
                                (0.68629e-01     0.34793 0.59256) );

         kappaCoeffs           ( (2.41657     0.74824   -0.91858)
                                (-0.50924    -1.50936   -49.99120)
                                (6.61069     5.62073    64.75990)
                                (14.54250    -8.91387   -5.63794)
                                (0.79274     0.82019    -0.69390)
                                (-5.86340   12.80050   9.58926)
                                (81.17100    114.15800  -60.84100)
                                (0.0         0.0        0.0)
                                (0.0         0.0        0.0)
                                (0.0         0.0        0.0) );

    }
    equationOfState  // from Reid
    {
       Tc  658.2;
       Vc  0.713;
       Pc  18.2e5;
       omega  0.575;
       dipole 0.0;
    }
   elements
   {
        C               12;
        H               26;
   }
}*/

/*CH4
{
    specie
    {
        nMoles          1;
        molWeight       16.04;
    }
    thermodynamics // da Converge
    {
        Tlow            100;
        Thigh           6000;
        Tcommon         1000;
        highCpCoeffs    ( 1.91178600e+00 9.60267960e-03 -3.38387841e-06 5.38797240e-10 -3.19306807e-14 -1.00992136e+04 8.48241861e+00 );
        lowCpCoeffs     ( 5.14825732e+00 -1.37002410e-02 4.93749414e-05 -4.91952339e-08 1.70097299e-11 -1.02453222e+04 -4.63322726e+00 );
    }
   transport
    {
         muCoeffs              ( (6.32402      50.41190  -51.68010)
                                (0.12102e-02 -0.11536e-02 -0.62571e-02)
                                (5.28346      254.209   -168.48100)
                                (6.62263      38.09570  -8.46414)
                                (19.74540     7.63034   -14.35440)
                                (-1.89992     -12.53670 4.98529)
                                (24.27450     3.44945   -11.29130)
                                (0.79716      1.11764   0.12348e-01)
                                (-0.23816     0.67695e-01 -0.81630)
                                (0.68629e-01     0.34793 0.59256) );

         kappaCoeffs           ( (2.41657     0.74824   -0.91858)
                                (-0.50924    -1.50936   -49.99120)
                                (6.61069     5.62073    64.75990)
                                (14.54250    -8.91387   -5.63794)
                                (0.79274     0.82019    -0.69390)
                                (-5.86340   12.80050   9.58926)
                                (81.17100    114.15800  -60.84100)
                                (0.0         0.0        0.0)
                                (0.0         0.0        0.0)
                                (0.0         0.0        0.0) );
         As              1.512e-06;
         Ts              120;

    }
    equationOfState
    {
       Tc  190.4;
       Vc  0.0992;
       Pc  46e5;
       omega  0.011;
       dipole 0.0;
    }
   elements
   {
        C               1;
        H               4;
   }
}*/

/*C7H16
{
    specie
    {
        nMoles          1;
        molWeight       100.206;
    }
    thermodynamics // da Converge
    {
        Tlow            100;
        Thigh           6000;
        Tcommon         1000;
        highCpCoeffs    ( 20.4565 0.0348575 -1.09227e-05 1.67202e-09 -9.81025e-14 -32555.6 -80.4405 );
        lowCpCoeffs     ( 11.1533 -0.0094942 0.000195572 -2.49754e-07 9.84878e-11 -26768.9 -15.9097 );
    }
     transport
    {
         muCoeffs              ( (6.32402      50.41190  -51.68010)
                                (0.12102e-02 -0.11536e-02 -0.62571e-02)
                                (5.28346      254.209   -168.48100)
                                (6.62263      38.09570  -8.46414)
                                (19.74540     7.63034   -14.35440)
                                (-1.89992     -12.53670 4.98529)
                                (24.27450     3.44945   -11.29130)
                                (0.79716      1.11764   0.12348e-01)
                                (-0.23816     0.67695e-01 -0.81630)
                                (0.68629e-01     0.34793 0.59256) );

         kappaCoeffs           ( (2.41657     0.74824   -0.91858)
                                (-0.50924    -1.50936   -49.99120)
                                (6.61069     5.62073    64.75990)
                                (14.54250    -8.91387   -5.63794)
                                (0.79274     0.82019    -0.69390)
                                (-5.86340   12.80050   9.58926)
                                (81.17100    114.15800  -60.84100)
                                (0.0         0.0        0.0)
                                (0.0         0.0        0.0)
                                (0.0         0.0        0.0) );

    }
    equationOfState
    {
       Tc  540.3;
       Vc  0.432;
       Pc  27.4e5;
       omega  0.349;
       dipole 0.0;
    }
   elements
   {
        C               7;
        H               16;
   }
}

CO2
{
    specie
    {
        nMoles          1;
        molWeight       44.01;
    }
    thermodynamics
    {
        Tlow            100;
        Thigh           5000;
        Tcommon         1000;
        highCpCoeffs    ( 4.45362 0.00314017 -1.27841e-06 2.394e-10 -1.66903e-14 -48967 -0.955396 );
        lowCpCoeffs     ( 2.27572 0.00992207 -1.04091e-05 6.86669e-09 -2.11728e-12 -48373.1 10.1885 );
    }
 transport
    {
         muCoeffs              ( (6.32402      50.41190  -51.68010)
                                (0.12102e-02 -0.11536e-02 -0.62571e-02)
                                (5.28346      254.209   -168.48100)
                                (6.62263      38.09570  -8.46414)
                                (19.74540     7.63034   -14.35440)
                                (-1.89992     -12.53670 4.98529)
                                (24.27450     3.44945   -11.29130)
                                (0.79716      1.11764   0.12348e-01)
                                (-0.23816     0.67695e-01 -0.81630)
                                (0.68629e-01     0.34793 0.59256) );

         kappaCoeffs           ( (2.41657     0.74824   -0.91858)
                                (-0.50924    -1.50936   -49.99120)
                                (6.61069     5.62073    64.75990)
                                (14.54250    -8.91387   -5.63794)
                                (0.79274     0.82019    -0.69390)
                                (-5.86340   12.80050   9.58926)
                                (81.17100    114.15800  -60.84100)
                                (0.0         0.0        0.0)
                                (0.0         0.0        0.0)
                                (0.0         0.0        0.0) );

    }
    equationOfState
    {
       Tc  304.1;
       Vc  0.0939;
       Pc  73.8e5;
       omega  0.239;
       dipole 0.0;
    }
   elements
   {
        C               1;
        O               2;
   }
}*/

/*N2
{
    specie
    {
        nMoles          1;
        molWeight       28.0134;
    }
    thermodynamics
    {
        Tlow            100;
        Thigh           5000;
        Tcommon         1000;
        highCpCoeffs    ( 2.92664 0.00148798 -5.68476e-07 1.0097e-10 -6.75335e-15 -922.798 5.98053 );
        lowCpCoeffs     ( 3.29868 0.00140824 -3.96322e-06 5.64152e-09 -2.44486e-12 -1020.9 3.95037 );
    }
     transport
    {
          muCoeffs              ( (6.32402      50.41190  -51.68010)
                                (0.12102e-02 -0.11536e-02 -0.62571e-02)
                                (5.28346      254.209   -168.48100)
                                (6.62263      38.09570  -8.46414)
                                (19.74540     7.63034   -14.35440)
                                (-1.89992     -12.53670 4.98529)
                                (24.27450     3.44945   -11.29130)
                                (0.79716      1.11764   0.12348e-01)
                                (-0.23816     0.67695e-01 -0.81630)
                                (0.68629e-01     0.34793 0.59256) );

         kappaCoeffs           ( (2.41657     0.74824   -0.91858)
                                (-0.50924    -1.50936   -49.99120)
                                (6.61069     5.62073    64.75990)
                                (14.54250    -8.91387   -5.63794)
                                (0.79274     0.82019    -0.69390)
                                (-5.86340   12.80050   9.58926)
                                (81.17100    114.15800  -60.84100)
                                (0.0         0.0        0.0)
                                (0.0         0.0        0.0)
                                (0.0         0.0        0.0) );
         As              1.512e-06;
         Ts              120;

    }

    equationOfState
    {
       Tc  126.2;
       Vc  0.0898;
       Pc  33.9e5;
       omega  0.039;
       dipole 0.0;
    }
   elements
   {
        N               2;
   }
}*/

H2
{
    specie
    {
        nMoles          1;
        molWeight       2.01568;
    }
    thermodynamics
    {
        Tlow            70;
        Thigh           5000;
        Tcommon         1000;
        highCpCoeffs    ( 2.99142300E+00 7.00064400E-04 -5.63382900E-08 -9.23157800E-12 1.58275200E-15 -8.35034000E+02 -8.35034000E+02 );
        lowCpCoeffs     ( 3.29812400E+00 8.24944200E-04 -8.14301500E-07 -9.47543400E-11 4.13487200E-13 -1.01252100E+03 -3.29409400E+00 );
    }
    transport
    {
       
	muCoeffs              ( (6.32402      50.41190  -51.68010)
                                (0.12102e-02 -0.11536e-02 -0.62571e-02)
                                (5.28346      254.209   -168.48100)
                                (6.62263      38.09570  -8.46414)
                                (19.74540     7.63034   -14.35440)
                                (-1.89992     -12.53670 4.98529)
                                (24.27450     3.44945   -11.29130)
                                (0.79716      1.11764   0.12348e-01)
                                (-0.23816     0.67695e-01 -0.81630)
                                (0.68629e-01     0.34793 0.59256) );

         kappaCoeffs           ( (2.41657     0.74824   -0.91858)
                                (-0.50924    -1.50936   -49.99120)
                                (6.61069     5.62073    64.75990)
                                (14.54250    -8.91387   -5.63794)
                                (0.79274     0.82019    -0.69390)
                                (-5.86340   12.80050   9.58926)
                                (81.17100    114.15800  -60.84100)
                                (0.0         0.0        0.0)
                                (0.0         0.0        0.0)
                                (0.0         0.0        0.0) );
    }
    equationOfState
    {
       Tc  33.2;
       Vc  0.0651;
       Pc  13.0e5;
       omega  -0.218;
        dipole 0.0;
    }
   elements
   {
        H               2;
   }
   
}
// ************************************************************************* //
