/*--------------------------------*- C++ -*----------------------------------*\
| =========                 |                                                 |
| \\      /  F ield         | OpenFOAM: The Open Source CFD Toolbox           |
|  \\    /   O peration     | Version:  3.0.x                                 |
|   \\  /    A nd           | Web:      www.OpenFOAM.org                      |
|    \\/     M anipulation  |                                                 |
\*---------------------------------------------------------------------------*/
FoamFile
{
    version     2.0;
    format      ascii;
    class       dictionary;
    location    "constant";
    object      thermophysicalProperties;
}
// * * * * * * * * * * * * * * * * * * * * * * * * * * * * * * * * * * * * * //

thermoType
{
    type            hePsiThermo;
    mixture         reactingMixture;
    transport       chungMix;
    thermo          janaf;
    energy          sensibleEnthalpy;
    equationOfState mixturePengRobinsonGas;
    specie          specie;
}

inertSpecie 		O2;

//CHEMKINFile             "$FOAM_CASE/chemkin/chem.inp";
//CHEMKINThermoFile       "$FOAM_CASE/chemkin/therm.dat";

chemistryReader foamChemistryReader;

foamChemistryFile "$FOAM_CASE/constant/reactions";

foamChemistryThermoFile "$FOAM_CASE/constant/thermo.compressibleGas";

newFormat       yes;

/*liquids
 {
    C7H16;
 }

solids
{}
*/

// ************************************************************************* //
