/*--------------------------------*- C++ -*----------------------------------*\
| =========                 |                                                 |
| \\      /  F ield         | OpenFOAM: The Open Source CFD Toolbox           |
|  \\    /   O peration     | Version:  3.0.x                                 |
|   \\  /    A nd           | Web:      www.OpenFOAM.org                      |
|    \\/     M anipulation  |                                                 |
\*---------------------------------------------------------------------------*/
FoamFile
{
    version     2.0;
    format      ascii;
    class       volScalarField;
    object      H2;
}
// * * * * * * * * * * * * * * * * * * * * * * * * * * * * * * * * * * * * * //

dimensions      [0 0 0 0 0 0 0];

internalField   uniform 0.5;

boundaryField
{
    inlet_up
    {
        type            fixedValue;
        value           uniform 0.95;
    }

    inlet_down
    {
        type            fixedValue;
        value           uniform 0.05;
    }

    outlet
    {
        
         type            zeroGradient;
    }

    upperSide
    {
        type            zeroGradient;
    }
	
    lowerSide
    {
        type            zeroGradient;
    }

    septumWall
    {
        type            zeroGradient;
    }
	
    frontAndBack2d
    {
        type            empty;
    }
}


// ************************************************************************* //
