/*--------------------------------*- C++ -*----------------------------------*\
| =========                 |                                                 |
| \\      /  F ield         | OpenFOAM: The Open Source CFD Toolbox           |
|  \\    /   O peration     | Version:  3.0.x                                 |
|   \\  /    A nd           | Web:      www.OpenFOAM.org                      |
|    \\/     M anipulation  |                                                 |
\*---------------------------------------------------------------------------*/
FoamFile
{
    version     2.0;
    format      ascii;
    class       volScalarField;
    object      k;
}
// * * * * * * * * * * * * * * * * * * * * * * * * * * * * * * * * * * * * * //

dimensions      [0 2 -2 0 0 0 0];

internalField   uniform 2e-3;

boundaryField
{
    inlet_up
    {
        type            fixedValue;
        value           uniform 2e-3;
    }

    inlet_down
    {
        type            fixedValue;
        value           uniform 2e-3;
    }

    outlet
    {
        type            inletOutlet;
        value           $internalField;
        inletValue      uniform 0;
    }

    upperSide
    {
        type            fixedValue;
        value           uniform 0;
    }

    lowerSide
    {
        type            fixedValue;
        value           uniform 0;
    }

    septumWall
    {
        type            fixedValue;
        value           uniform 0;
    }

    frontAndBack2d
    {
        type            empty;
    }
}

// ************************************************************************* //
