/*--------------------------------*- C++ -*----------------------------------*\
| =========                 |                                                 |
| \\      /  F ield         | OpenFOAM: The Open Source CFD Toolbox           |
|  \\    /   O peration     | Version:  v2006                                 |
|   \\  /    A nd           | Website:  www.openfoam.com                      |
|    \\/     M anipulation  |                                                 |
\*---------------------------------------------------------------------------*/
FoamFile
{
    version     2.0;
    format      ascii;
    class       volScalarField;
    location    "0";
    object      nut;
}
// * * * * * * * * * * * * * * * * * * * * * * * * * * * * * * * * * * * * * //

dimensions      [0 2 -1 0 0 0 0];

internalField   uniform 0;

boundaryField
{
    inlet_up
    {
        type            zeroGradient;
    }

    inlet_down
    {
        type            zeroGradient;
    }

    outlet
    {
        type            zeroGradient;
    }

    upperSide
    {
        type            zeroGradient;
    }

    lowerSide
    {
        type            zeroGradient;
    }

    septumWall
    {
        type            zeroGradient;
    }

    frontAndBack2d
    {
        type            empty;
    }
}

// ************************************************************************* //

