/*--------------------------------*- C++ -*----------------------------------*\
  =========                 |
  \\      /  F ield         | OpenFOAM: The Open Source CFD Toolbox
   \\    /   O peration     | Website:  https://openfoam.org
    \\  /    A nd           | Version:  6
     \\/     M anipulation  |
\*---------------------------------------------------------------------------*/
FoamFile
{
    version     2.0;
    format      ascii;
    class       volScalarField;
    location    "0";
    object      T;
}
// * * * * * * * * * * * * * * * * * * * * * * * * * * * * * * * * * * * * * //

dimensions      [0 0 0 1 0 0 0];

internalField   uniform 125.0;

boundaryField
{
    inlet_up
    {
        type            fixedValue;
        value           uniform 150.0;
    }
	
    inlet_down
    {
        type            fixedValue;
        value           uniform 100.0;
    }
	
    outlet
    {
        type            zeroGradient;

    }
	
    upperSide
    {
        type            zeroGradient;
    }
	
    lowerSide
    {
        type            zeroGradient;
    }
	
    septumWall
    {
        type            zeroGradient;
    }
	
    frontAndBack2d
    {
        type            empty;
    }
}


// ************************************************************************* //
