/*--------------------------------*- C++ -*----------------------------------*\
| =========                 |                                                 |
| \\      /  F ield         | OpenFOAM: The Open Source CFD Toolbox           |
|  \\    /   O peration     | Version:  3.0.x                                 |
|   \\  /    A nd           | Web:      www.OpenFOAM.org                      |
|    \\/     M anipulation  |                                                 |
\*---------------------------------------------------------------------------*/
FoamFile
{
    version     2.0;
    format      ascii;
    class       volScalarField;
    object      Ydefault;
}
// * * * * * * * * * * * * * * * * * * * * * * * * * * * * * * * * * * * * * //

dimensions      [0 0 0 0 0 0 0];

internalField   uniform 0;

boundaryField
{
    inlet_up
    {
        type            fixedValue;
        value           uniform 0.0;
    }

    inlet_down
    {
        type            fixedValue;
        value           uniform 0.0;
    }

    outlet
    {
        type            inletOutlet;
        value           $internalField;
        inletValue      uniform 0.0;
    }

    upperSide
    {
        type            zeroGradient;
    }
	
    lowerSide
    {
        type            zeroGradient;
    }

    septumWall
    {
        type            zeroGradient;
    }

    frontAndBack2d
    {
        type            empty;
    }
}

// ************************************************************************* //
