/*--------------------------------*- C++ -*----------------------------------*\
| =========                 |                                                 |
| \\      /  F ield         | OpenFOAM: The Open Source CFD Toolbox           |
|  \\    /   O peration     | Version:  3.0.x                                 |
|   \\  /    A nd           | Web:      www.OpenFOAM.org                      |
|    \\/     M anipulation  |                                                 |
\*---------------------------------------------------------------------------*/
FoamFile
{
    version     2.0;
    format      ascii;
    class       dictionary;
    location    "system";
    object      setFieldsDict;
}
// * * * * * * * * * * * * * * * * * * * * * * * * * * * * * * * * * * * * * //

defaultFieldValues ( volVectorFieldValue U (30 0 0) 
                     volScalarFieldValue T 150 
                     volScalarFieldValue p 100.0e5 
                     volScalarFieldValue H2 0.95
                     volScalarFieldValue O2 0.05
                   );

regions         ( boxToCell { box (-1 -1 -1) (1 0 1) ; fieldValues (       volScalarFieldValue T 100 
                                                                           volScalarFieldValue H2 0.05 
                                                                           volScalarFieldValue O2 0.95
                                                                         ) ; } );


// ************************************************************************* //
